*Aoi31 sim file
.INCLUDE "../MOSIS_025m.txt"
.INCLUDE "aoi31.spice"

V1 vdd 0 DC 2.5
Vgnd gnd! 0 DC 0
V2 A 0 DC 0
V3 B 0 DC 2.5
V4 C 0 DC PULSE (2.5 0 2n 0.25n 0.25n 16n 32n)
V5 D 0 DC 0

.TRAN 0.1n 100n

*Setting up environment 
.control
set hcopydevtype=postscript
set hcopypscolor=true
set color0=rgb:f/f/f
set color1=rgb:0/0/0
*hardcopy aoi31.ps 
.endc


.end
