*PMOS voltage threshold
.INCLUDE "../MOSIS_025m.txt"

M1 0 g1 out1 out1 CMOSP L=2u W=3u
C1 out1 0 0.1p

Vgs1 g1 0 DC 0

.ic V(out1)=2.5
.tran 0.1ns 200ns

*Setting up environment 
.control
set hcopydevtype=postscript
set hcopypscolor=true
set color0=rgb:f/f/f
set color1=rgb:0/0/0

*run, plot and save
run
plot out1
hardcopy pmos_thres.ps out1

.endc

*Measurements of threshold voltages
.meas tran vt_total find par('v(out1)') at=10e-8

.end
